[TITLE]
Twoloop


[JUNCTIONS]
;ID	Elev	Demand	Pattern
2	150.0	27.7777
3	160.0	27.777
4	155.0	33.333
5	150.0	75.0
6	165.0	91.666
7	160.0	55.555
3s5	155.19578	0.0
4s5	152.17076	0.0
4s6	155.884393	0.0
6s7	164.946973	0.0

[RESERVOIRS]
;ID	Head	Pattern
1	210.0


[VALVES]
;ID	Node1	Node2	Diameter	Type	Setting

[PIPES]
;ID	Start	End	Length	Diameter	Roughness	MinorLoss	Status
1	1	2	1000.0	457.2	130.0	0	Open
3	2	3	1000.0	254.0	130.0	0	Open
2	2	4	1000.0	406.4	130.0	0	Open
4	3	3s5	480.422	203.2	130.0	0	Open
4s	3s5	5	519.578	254.0	130.0	0	Open
5	4	4s5	565.848	101.6	130.0	0	Open
5s	4s5	5	434.152	152.4	130.0	0	Open
6	4	4s6	88.4393	355.6	130.0	0	Open
6s	4s6	6	911.5607	406.4	130.0	0	Open
8	6	6s7	10.6054	203.2	130.0	0	Open
8s	6s7	7	989.3946	254.0	130.0	0	Open
7	7	5	1000.0	25.4	130.0	0	Open

[OPTIONS]
Units	LPS
Headloss	H-W


[COORDINATES]
;Node	X-Coord	Y-Coord
1 300 1100
2 300 950
3 50 350
4 425 800
5 300 50
6 550 500
7 550 200
3s5 50 200
4s5 300 200
4s6 550 650
6s7 550 350

[VERTICES]
;Pipe	X-Coord	Y-Coord
1 300 1050
1 300 1025
1 300 1000
3 250 935
3 50 875
3 50 800
3 50 725
3 50 650
3 50 575
3 50 500
3 50 425
3 50 400
2 350 920
2 425 875
2 425 850
4 50 300
4 50 275
4 50 250
4s 50 150
4s 50 125
4s 250 65
5 375 770
5 300 725
5 300 650
5 300 575
5 300 500
5 300 425
5 300 350
5 300 275
5 300 250
5s 300 150
5s 300 125
5s 300 100
6 475 770
6 550 725
6 550 700
6s 550 600
6s 550 575
6s 550 550
8 550 450
8 550 425
8 550 400
8s 550 300
8s 550 275
8s 550 250
7 550 150
7 550 125
7 350 65

[END]

